Version 4
SHEET 1 1288 680
WIRE -672 -272 -928 -272
WIRE -624 -272 -672 -272
WIRE -352 -272 -368 -272
WIRE -208 -272 -272 -272
WIRE -112 -272 -208 -272
WIRE -48 -272 -112 -272
WIRE 288 -272 208 -272
WIRE 544 -272 288 -272
WIRE -928 -256 -928 -272
WIRE 624 -208 624 -272
WIRE -928 -160 -928 -176
WIRE 80 -144 80 -176
WIRE -496 -112 -496 -176
WIRE -208 -112 -208 -272
WIRE -208 -112 -496 -112
WIRE 624 -96 624 -128
WIRE 80 -64 80 -80
WIRE 80 32 80 0
FLAG 624 -96 0
FLAG -928 -160 0
FLAG -672 -208 0
FLAG -112 -208 0
FLAG 288 -208 0
FLAG 80 96 0
SYMBOL res -256 -288 R90
WINDOW 0 0 56 VBottom 2
WINDOW 3 32 56 VTop 2
SYMATTR InstName R1
SYMATTR Value 10
SYMBOL cap -128 -272 R0
SYMATTR InstName C1
SYMATTR Value 10µ
SYMBOL cap 272 -272 R0
SYMATTR InstName C2
SYMATTR Value 10µ
SYMBOL cap -688 -272 R0
SYMATTR InstName C3
SYMATTR Value 10µ
SYMBOL LED 64 -144 R0
SYMATTR InstName D1
SYMATTR Value AOT-2015
SYMATTR Description Diode
SYMATTR Type diode
SYMBOL diode 64 -64 R0
SYMATTR InstName D2
SYMATTR Value 1N4148
SYMBOL voltage -928 -272 R0
WINDOW 123 0 0 Left 0
WINDOW 39 0 0 Left 0
SYMATTR InstName V1
SYMATTR Value 20
SYMBOL voltage 624 -224 R0
WINDOW 123 0 0 Left 0
WINDOW 39 0 0 Left 0
SYMATTR InstName V2
SYMATTR Value PULSE(0 14 0 30 0 100)
SYMBOL res 640 -288 R90
WINDOW 0 0 56 VBottom 2
WINDOW 3 32 56 VTop 2
SYMATTR InstName R2
SYMATTR Value 100
SYMBOL PowerProducts\\LT1086-5 -496 -272 R0
SYMATTR InstName U1
SYMBOL PowerProducts\\LT1086-5 80 -272 R0
SYMATTR InstName U2
SYMBOL zener 96 96 R180
WINDOW 0 24 64 Left 2
WINDOW 3 24 0 Left 2
SYMATTR InstName D3
SYMATTR Value MMBZ6V8ALY
TEXT -960 120 Left 2 !.tran 0 40 0 1m
