Version 4
SHEET 1 1344 680
WIRE 976 -304 272 -304
WIRE 1072 -304 976 -304
WIRE 976 -288 976 -304
WIRE 496 -208 352 -208
WIRE 720 -208 576 -208
WIRE 1152 -160 1008 -160
WIRE 128 -128 32 -128
WIRE 272 -128 272 -304
WIRE 272 -128 192 -128
WIRE 720 -128 720 -208
WIRE 1072 -128 1072 -304
WIRE 1008 -112 1008 -160
WIRE 1040 -112 1008 -112
WIRE 272 -96 272 -128
WIRE 272 -96 240 -96
WIRE 432 -96 272 -96
WIRE 624 -96 432 -96
WIRE 1152 -96 1152 -160
WIRE 1152 -96 1104 -96
WIRE 1248 -96 1216 -96
WIRE 976 -80 976 -208
WIRE 976 -80 848 -80
WIRE 1040 -80 976 -80
WIRE 32 -32 32 -48
WIRE 528 -16 432 -16
WIRE 784 -16 624 -16
WIRE 848 -16 848 -80
WIRE 896 -16 848 -16
WIRE 432 0 432 -16
WIRE 624 0 624 -16
WIRE 352 48 352 -208
WIRE 368 48 352 48
WIRE 720 48 720 -128
WIRE 720 48 688 48
WIRE 736 48 720 48
WIRE 976 48 976 -80
WIRE 240 96 240 -16
WIRE 240 96 144 96
WIRE 272 96 240 96
WIRE 352 96 352 48
WIRE 576 96 432 96
WIRE 624 96 576 96
WIRE 240 112 240 96
WIRE 576 112 576 96
WIRE 432 144 416 144
WIRE 432 160 432 144
WIRE 464 160 432 160
WIRE 512 160 464 160
WIRE 336 176 336 144
WIRE 336 176 240 176
WIRE 432 192 432 160
WIRE 432 192 368 192
WIRE 368 240 368 192
WIRE 464 240 464 224
WIRE 576 240 576 208
WIRE 576 240 464 240
WIRE 464 256 464 240
WIRE 576 256 576 240
WIRE 368 336 368 304
WIRE 576 352 576 336
WIRE 144 432 144 96
WIRE 736 432 736 128
WIRE 736 432 144 432
FLAG 240 368 0
FLAG 464 320 0
FLAG 576 352 0
FLAG 32 -32 0
FLAG 528 48 0
FLAG 464 160 osc
FLAG 576 96 difcont
FLAG 720 -128 in
FLAG 368 336 0
FLAG 896 48 0
FLAG 976 128 0
FLAG 1072 -64 0
FLAG 1248 -96 audio
FLAG 848 -80 out
FLAG 1152 -160 op_amp_out
DATAFLAG 192 432 ""
SYMBOL diode 224 112 R0
SYMATTR InstName D1
SYMATTR Value 1N4148
SYMBOL diode 224 176 R0
SYMATTR InstName D2
SYMATTR Value 1N4148
SYMBOL diode 224 240 R0
SYMATTR InstName D3
SYMATTR Value 1N4148
SYMBOL diode 224 304 R0
SYMATTR InstName D4
SYMATTR Value 1N4148
SYMBOL cap 512 -16 R0
SYMATTR InstName C1
SYMATTR Value 2200p
SYMBOL cap 448 160 R0
SYMATTR InstName C2
SYMATTR Value 180p
SYMBOL cap 448 256 R0
SYMATTR InstName C3
SYMATTR Value 180p
SYMBOL res 416 -112 R0
SYMATTR InstName R1
SYMATTR Value 2.2k
SYMBOL res 608 -112 R0
SYMATTR InstName R2
SYMATTR Value 2.2k
SYMBOL res 720 32 R0
SYMATTR InstName R3
SYMATTR Value 10k
SYMBOL res 560 240 R0
SYMATTR InstName R4
SYMATTR Value 1k
SYMBOL res 432 128 R90
WINDOW 0 0 56 VBottom 2
WINDOW 3 32 56 VTop 2
SYMATTR InstName R5
SYMATTR Value 10k
SYMBOL res 368 80 R90
WINDOW 0 0 56 VBottom 2
WINDOW 3 32 56 VTop 2
SYMATTR InstName R6
SYMATTR Value 10k
SYMBOL res 224 -112 R0
SYMATTR InstName R7
SYMATTR Value 10k
SYMBOL npn 368 0 R0
WINDOW 3 19 33 Left 2
SYMATTR InstName Q1
SYMATTR Value BC847C
SYMBOL npn 512 112 R0
SYMATTR InstName Q2
SYMATTR Value BC847A
SYMBOL npn 688 0 M0
SYMATTR InstName Q3
SYMATTR Value BC847C
SYMBOL voltage 32 -144 R0
WINDOW 123 0 0 Left 0
WINDOW 39 0 0 Left 0
SYMATTR InstName V1
SYMATTR Value 9V
SYMBOL voltage 592 -208 R90
WINDOW 0 -32 56 VBottom 2
WINDOW 3 32 56 VTop 2
WINDOW 123 0 0 Left 0
WINDOW 39 -4 56 VBottom 2
SYMATTR InstName V2
SYMATTR Value SINE(0 1m 3710k)
SYMATTR SpiceLine Rser=4.4k
SYMBOL Misc\\xtal 352 240 R0
SYMATTR InstName C4
SYMATTR Value 20p
SYMATTR SpiceLine Lser=98845n Cpar=180p
SYMBOL res 960 -304 R0
SYMATTR InstName R8
SYMATTR Value 220k
SYMBOL res 960 32 R0
SYMATTR InstName R9
SYMATTR Value 220k
SYMBOL cap 880 -16 R0
SYMATTR InstName C5
SYMATTR Value 22n
SYMBOL cap 848 -32 R90
WINDOW 0 0 32 VBottom 2
WINDOW 3 32 32 VTop 2
SYMATTR InstName C6
SYMATTR Value 22n
SYMBOL schottky 128 -112 R270
WINDOW 0 32 32 VTop 2
WINDOW 3 0 32 VBottom 2
SYMATTR InstName D5
SYMATTR Value RBR40NS30A
SYMATTR Description Diode
SYMATTR Type diode
SYMBOL OpAmps\\OP07 1072 -160 R0
SYMATTR InstName U1
SYMBOL polcap 1152 -80 R270
WINDOW 0 32 32 VTop 2
WINDOW 3 0 32 VBottom 2
SYMATTR InstName C7
SYMATTR Value 10µ
TEXT -186 214 Left 2 !.tran 0 1m 500u 1n
